@<TRIPOS>MOLECULE
*****
 136 142 0 0 0
SMALL
GASTEIGER

@<TRIPOS>ATOM
      1 C           1.6329   -1.1251    0.3662 C.3     1  UNL1       -0.0650
      2 C           2.1023   -1.5536   -1.0156 C.3     1  UNL1       -0.0510
      3 C           3.6426   -1.6948   -1.2013 C.3     1  UNL1       -0.0174
      4 C           3.8647   -2.5156   -2.4857 C.3     1  UNL1       -0.0601
      5 C           4.4196   -0.3372   -1.3154 C.3     1  UNL1        0.0671
      6 C           4.6743    0.2967    0.0763 C.3     1  UNL1       -0.0170
      7 C           4.5125    1.8170    0.1372 C.3     1  UNL1       -0.0432
      8 C           3.4312    2.3067   -0.8179 C.3     1  UNL1        0.0019
      9 C           3.7842    1.8540   -2.2389 C.3     1  UNL1        0.1741
     10 O           3.6879    0.4329   -2.2560 O.3     1  UNL1       -0.3447
     11 C           2.7266    2.2654   -3.2813 C.3     1  UNL1        0.0387
     12 C           2.8322    3.7276   -3.6692 C.3     1  UNL1        0.1103
     13 C           4.2606    4.0797   -4.0527 C.3     1  UNL1        0.0113
     14 C           5.1633    3.7279   -2.8824 C.3     1  UNL1        0.0687
     15 O           5.0966    2.3117   -2.6218 O.3     1  UNL1       -0.3448
     16 C           6.6031    4.2444   -3.0461 C.3     1  UNL1       -0.0078
     17 C           7.4973    3.5886   -4.0569 C.2     1  UNL1       -0.0801
     18 C           7.9394    4.0076   -5.2659 C.2     1  UNL1       -0.0475
     19 C           7.4956    5.2292   -6.1203 C.3     1  UNL1        0.0884
     20 C           7.1464    4.7908   -7.5961 C.3     1  UNL1        0.0048
     21 C           5.9208    3.9010   -7.6783 C.2     1  UNL1       -0.0784
     22 C           4.6352    4.0936   -8.0045 C.2     1  UNL1       -0.0652
     23 C           3.9671    5.3123   -8.3727 C.2     1  UNL1       -0.0578
     24 C           2.6374    5.4946   -8.4702 C.2     1  UNL1       -0.0094
     25 C           2.0441    6.8428   -8.8022 C.3     1  UNL1        0.0724
     26 O           0.6174    6.6520   -8.8682 O.3     1  UNL1       -0.3661
     27 C           0.4508    5.2485   -9.1755 C.3     1  UNL1        0.1222
     28 C           1.4770    4.5335   -8.2898 C.3     1  UNL1        0.1344
     29 C           0.9944    4.5095   -6.8120 C.3     1  UNL1        0.1099
     30 C          -0.4626    4.1597   -6.6320 C.2     1  UNL1       -0.0658
     31 C          -1.3753    4.2937   -7.6092 C.2     1  UNL1       -0.0450
     32 C          -1.0025    4.7694   -8.9908 C.3     1  UNL1        0.1052
     33 O          -1.8879    5.8261   -9.3695 O.3     1  UNL1       -0.3848
     34 C          -2.8164    3.9267   -7.3895 C.3     1  UNL1       -0.0413
     35 C           1.8524    3.6257   -5.9093 C.2     1  UNL1        0.3175
     36 O           2.3992    2.5776   -6.2200 O.2     1  UNL1       -0.2501
     37 O           1.8961    4.1878   -4.6649 O.3     1  UNL1       -0.4606
     38 O           1.6996    3.2504   -8.8562 O.3     1  UNL1       -0.3804
     39 C           7.2797    5.8989   -8.6465 C.3     1  UNL1       -0.0563
     40 O           6.4173    5.8942   -5.4587 O.3     1  UNL1       -0.3432
     41 C           6.1202    7.2285   -5.8509 C.3     1  UNL1        0.1628
     42 C           5.0650    7.7741   -4.8917 C.3     1  UNL1        0.0273
     43 C           5.2043    9.2749   -4.6543 C.3     1  UNL1        0.0915
     44 C           5.6954   10.0070   -5.9197 C.3     1  UNL1        0.1137
     45 C           6.9933    9.3456   -6.4497 C.3     1  UNL1        0.0875
     46 O           7.2626    8.0750   -5.8322 O.3     1  UNL1       -0.3456
     47 C           8.2077   10.2259   -6.1773 C.3     1  UNL1       -0.0361
     48 O           4.6649    9.9401   -6.9297 O.3     1  UNL1       -0.3429
     49 C           4.6865   11.0666   -7.8164 C.3     1  UNL1        0.1626
     50 C           3.5296   10.9148   -8.8075 C.3     1  UNL1        0.0272
     51 C           3.0249   12.2745   -9.3110 C.3     1  UNL1        0.0911
     52 C           4.1657   13.3010   -9.3260 C.3     1  UNL1        0.1073
     53 C           4.7769   13.4411   -7.9193 C.3     1  UNL1        0.0871
     54 O           4.5145   12.2873   -7.1012 O.3     1  UNL1       -0.3456
     55 C           4.1928   14.6350   -7.1729 C.3     1  UNL1       -0.0361
     56 O           5.1776   12.8278  -10.2356 O.3     1  UNL1       -0.3867
     57 O           2.5251   12.1686  -10.6556 O.3     1  UNL1       -0.3770
     58 C           1.2324   11.5755  -10.7185 C.3     1  UNL1        0.0369
     59 O           3.9319    9.7340   -4.1685 O.3     1  UNL1       -0.3770
     60 C           3.9474   11.0598   -3.6626 C.3     1  UNL1        0.0369
     61 C           9.0807    3.2057   -5.8663 C.3     1  UNL1       -0.0413
     62 C           6.0595   -0.1106    0.5993 C.3     1  UNL1       -0.0601
     63 H           0.5434   -1.2173    0.4338 H       1  UNL1        0.0230
     64 H           1.8697   -0.0806    0.5761 H       1  UNL1        0.0230
     65 H           2.0709   -1.7559    1.1456 H       1  UNL1        0.0230
     66 H           1.6822   -0.8658   -1.7596 H       1  UNL1        0.0266
     67 H           1.6336   -2.5258   -1.2159 H       1  UNL1        0.0266
     68 H           4.0524   -2.2812   -0.3695 H       1  UNL1        0.0323
     69 H           3.4622   -2.0019   -3.3656 H       1  UNL1        0.0233
     70 H           3.3694   -3.4906   -2.4132 H       1  UNL1        0.0233
     71 H           4.9302   -2.7006   -2.6527 H       1  UNL1        0.0233
     72 H           5.3937   -0.5355   -1.7814 H       1  UNL1        0.0602
     73 H           3.9684   -0.1218    0.7972 H       1  UNL1        0.0323
     74 H           5.4625    2.3140   -0.0947 H       1  UNL1        0.0270
     75 H           4.2585    2.1152    1.1618 H       1  UNL1        0.0270
     76 H           3.3481    3.3933   -0.7310 H       1  UNL1        0.0317
     77 H           2.4638    1.8875   -0.5172 H       1  UNL1        0.0317
     78 H           1.7126    2.0245   -2.9383 H       1  UNL1        0.0353
     79 H           2.8718    1.6341   -4.1657 H       1  UNL1        0.0353
     80 H           2.5682    4.3187   -2.7834 H       1  UNL1        0.0736
     81 H           4.3066    5.1424   -4.2933 H       1  UNL1        0.0326
     82 H           4.5599    3.5269   -4.9489 H       1  UNL1        0.0326
     83 H           4.7962    4.2542   -1.9929 H       1  UNL1        0.0601
     84 H           7.1048    4.0963   -2.0783 H       1  UNL1        0.0332
     85 H           6.5922    5.3308   -3.1776 H       1  UNL1        0.0332
     86 H           7.9183    2.6622   -3.6604 H       1  UNL1        0.0573
     87 H           8.3629    5.9017   -6.1470 H       1  UNL1        0.0650
     88 H           7.9566    4.1222   -7.9196 H       1  UNL1        0.0369
     89 H           6.1496    2.8764   -7.3671 H       1  UNL1        0.0576
     90 H           4.0118    3.2038   -7.9212 H       1  UNL1        0.0615
     91 H           4.5959    6.1756   -8.5525 H       1  UNL1        0.0619
     92 H           2.3890    7.2049   -9.7761 H       1  UNL1        0.0608
     93 H           2.2544    7.5873   -8.0289 H       1  UNL1        0.0608
     94 H           0.6914    5.1326  -10.2438 H       1  UNL1        0.0658
     95 H           1.0994    5.5296   -6.4090 H       1  UNL1        0.0489
     96 H          -0.7716    3.8175   -5.6455 H       1  UNL1        0.0581
     97 H          -1.1781    3.9304   -9.6757 H       1  UNL1        0.0667
     98 H          -1.4485    6.6430   -9.0605 H       1  UNL1        0.2103
     99 H          -2.9836    3.4983   -6.3953 H       1  UNL1        0.0275
    100 H          -3.1365    3.1834   -8.1266 H       1  UNL1        0.0275
    101 H          -3.4570    4.8095   -7.4801 H       1  UNL1        0.0275
    102 H           2.4397    3.3111   -9.4837 H       1  UNL1        0.2108
    103 H           6.6080    6.7423   -8.5193 H       1  UNL1        0.0236
    104 H           7.1069    5.4943   -9.6507 H       1  UNL1        0.0236
    105 H           8.2990    6.3024   -8.6329 H       1  UNL1        0.0236
    106 H           5.6804    7.2161   -6.8467 H       1  UNL1        0.0911
    107 H           5.1229    7.2714   -3.9177 H       1  UNL1        0.0340
    108 H           4.0657    7.5176   -5.2693 H       1  UNL1        0.0340
    109 H           5.9455    9.4206   -3.8565 H       1  UNL1        0.0624
    110 H           5.8795   11.0559   -5.6656 H       1  UNL1        0.0649
    111 H           6.9289    9.1793   -7.5321 H       1  UNL1        0.0621
    112 H           8.3435   10.3840   -5.1019 H       1  UNL1        0.0255
    113 H           8.1088   11.1996   -6.6673 H       1  UNL1        0.0255
    114 H           9.1200    9.7432   -6.5441 H       1  UNL1        0.0255
    115 H           5.6499   11.0724   -8.3412 H       1  UNL1        0.0910
    116 H           2.6909   10.3870   -8.3346 H       1  UNL1        0.0340
    117 H           3.8383   10.2632   -9.6347 H       1  UNL1        0.0340
    118 H           2.2283   12.6508   -8.6555 H       1  UNL1        0.0624
    119 H           3.8362   14.2666   -9.7256 H       1  UNL1        0.0645
    120 H           5.8651   13.5631   -7.9836 H       1  UNL1        0.0621
    121 H           3.1104   14.5276   -7.0428 H       1  UNL1        0.0255
    122 H           4.3922   15.5717   -7.7022 H       1  UNL1        0.0255
    123 H           4.6242   14.7053   -6.1682 H       1  UNL1        0.0255
    124 H           4.6937   12.6325  -11.0647 H       1  UNL1        0.2100
    125 H           0.9086   11.5755  -11.7629 H       1  UNL1        0.0524
    126 H           0.5141   12.1583  -10.1338 H       1  UNL1        0.0524
    127 H           1.2606   10.5417  -10.3638 H       1  UNL1        0.0524
    128 H           2.9692   11.2643   -3.2183 H       1  UNL1        0.0524
    129 H           4.1114   11.7851   -4.4620 H       1  UNL1        0.0524
    130 H           4.7102   11.1693   -2.8863 H       1  UNL1        0.0524
    131 H           9.6144    2.6159   -5.1120 H       1  UNL1        0.0275
    132 H           9.8229    3.8747   -6.3156 H       1  UNL1        0.0275
    133 H           8.7147    2.5115   -6.6281 H       1  UNL1        0.0275
    134 H           6.8554    0.2819   -0.0439 H       1  UNL1        0.0233
    135 H           6.1616   -1.2004    0.6347 H       1  UNL1        0.0233
    136 H           6.2233    0.2755    1.6108 H       1  UNL1        0.0233
@<TRIPOS>BOND
     1     1     2    1
     2     2     3    1
     3     3     4    1
     4     3     5    1
     5     5     6    1
     6     6     7    1
     7     7     8    1
     8     8     9    1
     9     9    10    1
    10     5    10    1
    11     9    11    1
    12    11    12    1
    13    12    13    1
    14    13    14    1
    15    14    15    1
    16     9    15    1
    17    14    16    1
    18    16    17    1
    19    17    18    2
    20    18    19    1
    21    19    20    1
    22    20    21    1
    23    21    22    2
    24    22    23    1
    25    23    24    2
    26    24    25    1
    27    25    26    1
    28    26    27    1
    29    27    28    1
    30    24    28    1
    31    28    29    1
    32    29    30    1
    33    30    31    2
    34    31    32    1
    35    27    32    1
    36    32    33    1
    37    31    34    1
    38    29    35    1
    39    35    36    2
    40    35    37    1
    41    12    37    1
    42    28    38    1
    43    20    39    1
    44    19    40    1
    45    40    41    1
    46    41    42    1
    47    42    43    1
    48    43    44    1
    49    44    45    1
    50    45    46    1
    51    41    46    1
    52    45    47    1
    53    44    48    1
    54    48    49    1
    55    49    50    1
    56    50    51    1
    57    51    52    1
    58    52    53    1
    59    53    54    1
    60    49    54    1
    61    53    55    1
    62    52    56    1
    63    51    57    1
    64    57    58    1
    65    43    59    1
    66    59    60    1
    67    18    61    1
    68     6    62    1
    69     1    63    1
    70     1    64    1
    71     1    65    1
    72     2    66    1
    73     2    67    1
    74     3    68    1
    75     4    69    1
    76     4    70    1
    77     4    71    1
    78     5    72    1
    79     6    73    1
    80     7    74    1
    81     7    75    1
    82     8    76    1
    83     8    77    1
    84    11    78    1
    85    11    79    1
    86    12    80    1
    87    13    81    1
    88    13    82    1
    89    14    83    1
    90    16    84    1
    91    16    85    1
    92    17    86    1
    93    19    87    1
    94    20    88    1
    95    21    89    1
    96    22    90    1
    97    23    91    1
    98    25    92    1
    99    25    93    1
   100    27    94    1
   101    29    95    1
   102    30    96    1
   103    32    97    1
   104    33    98    1
   105    34    99    1
   106    34   100    1
   107    34   101    1
   108    38   102    1
   109    39   103    1
   110    39   104    1
   111    39   105    1
   112    41   106    1
   113    42   107    1
   114    42   108    1
   115    43   109    1
   116    44   110    1
   117    45   111    1
   118    47   112    1
   119    47   113    1
   120    47   114    1
   121    49   115    1
   122    50   116    1
   123    50   117    1
   124    51   118    1
   125    52   119    1
   126    53   120    1
   127    55   121    1
   128    55   122    1
   129    55   123    1
   130    56   124    1
   131    58   125    1
   132    58   126    1
   133    58   127    1
   134    60   128    1
   135    60   129    1
   136    60   130    1
   137    61   131    1
   138    61   132    1
   139    61   133    1
   140    62   134    1
   141    62   135    1
   142    62   136    1
